KIN-0001148
     RDKit          3D

 42 44  0  0  0  0  0  0  0  0999 V2000
    1.8765    1.4946   -0.2504 O   0  0  0  0  0  0  0  0  0  0  0  0
    2.1432    0.3280    0.0148 C   0  0  0  0  0  0  0  0  0  0  0  0
    1.0971   -0.7126    0.2329 C   0  0  0  0  0  0  0  0  0  0  0  0
    3.5458   -0.1112    0.1354 C   0  0  0  0  0  0  0  0  0  0  0  0
   -0.3448   -0.4207    0.1308 C   0  0  0  0  0  0  0  0  0  0  0  0
    1.5241   -1.9576    0.4993 C   0  0  0  0  0  0  0  0  0  0  0  0
    3.8141   -1.4440    0.4304 C   0  0  0  0  0  0  0  0  0  0  0  0
    4.5960    0.7979   -0.0407 C   0  0  0  0  0  0  0  0  0  0  0  0
   -1.2389   -0.8277    1.1270 C   0  0  0  0  0  0  0  0  0  0  0  0
   -0.8566    0.2749   -0.9681 C   0  0  0  0  0  0  0  0  0  0  0  0
    2.8273   -2.3775    0.6123 O   0  0  0  0  0  0  0  0  0  0  0  0
    5.1329   -1.8780    0.5552 C   0  0  0  0  0  0  0  0  0  0  0  0
    5.9250    0.3675    0.0690 C   0  0  0  0  0  0  0  0  0  0  0  0
   -2.6080   -0.5546    1.0167 C   0  0  0  0  0  0  0  0  0  0  0  0
   -2.2272    0.5482   -1.0768 C   0  0  0  0  0  0  0  0  0  0  0  0
    6.1841   -0.9741    0.3805 C   0  0  0  0  0  0  0  0  0  0  0  0
    7.0530    1.3450   -0.0850 C   0  0  0  0  0  0  0  0  0  0  0  0
   -3.1353    0.1377   -0.0891 C   0  0  0  0  0  0  0  0  0  0  0  0
   -4.6444    0.4241   -0.1753 C   0  0  0  0  0  0  0  0  0  0  0  0
   -5.0786    1.2850    1.0305 C   0  0  0  0  0  0  0  0  0  0  0  0
   -5.4276   -0.9065   -0.1576 C   0  0  0  0  0  0  0  0  0  0  0  0
   -5.0642    1.1833   -1.4543 C   0  0  0  0  0  0  0  0  0  0  0  0
    0.8633   -2.8028    0.6519 H   0  0  0  0  0  0  0  0  0  0  0  0
    4.3737    1.8403   -0.2635 H   0  0  0  0  0  0  0  0  0  0  0  0
   -0.8834   -1.3524    2.0111 H   0  0  0  0  0  0  0  0  0  0  0  0
   -0.1919    0.6229   -1.7571 H   0  0  0  0  0  0  0  0  0  0  0  0
    5.3450   -2.9176    0.7909 H   0  0  0  0  0  0  0  0  0  0  0  0
   -3.2605   -0.8893    1.8205 H   0  0  0  0  0  0  0  0  0  0  0  0
   -2.5535    1.0972   -1.9559 H   0  0  0  0  0  0  0  0  0  0  0  0
    7.2090   -1.3241    0.4882 H   0  0  0  0  0  0  0  0  0  0  0  0
    6.7892    2.1367   -0.7941 H   0  0  0  0  0  0  0  0  0  0  0  0
    7.9496    0.8489   -0.4713 H   0  0  0  0  0  0  0  0  0  0  0  0
    7.2886    1.7994    0.8822 H   0  0  0  0  0  0  0  0  0  0  0  0
   -6.1452    1.5326    0.9758 H   0  0  0  0  0  0  0  0  0  0  0  0
   -4.9174    0.7723    1.9852 H   0  0  0  0  0  0  0  0  0  0  0  0
   -4.5187    2.2272    1.0645 H   0  0  0  0  0  0  0  0  0  0  0  0
   -5.2760   -1.4648    0.7727 H   0  0  0  0  0  0  0  0  0  0  0  0
   -6.5057   -0.7320   -0.2538 H   0  0  0  0  0  0  0  0  0  0  0  0
   -5.1197   -1.5564   -0.9854 H   0  0  0  0  0  0  0  0  0  0  0  0
   -6.1466    1.3594   -1.4719 H   0  0  0  0  0  0  0  0  0  0  0  0
   -4.8153    0.6172   -2.3595 H   0  0  0  0  0  0  0  0  0  0  0  0
   -4.5781    2.1637   -1.5197 H   0  0  0  0  0  0  0  0  0  0  0  0
  1  2  2  0
  2  3  1  0
  2  4  1  0
  3  5  1  0
  3  6  2  0
  4  7  2  0
  4  8  1  0
  5  9  1  0
  5 10  2  0
  6 11  1  0
  7 12  1  0
  8 13  2  0
  9 14  2  0
 10 15  1  0
 12 16  2  0
 13 17  1  0
 14 18  1  0
 18 19  1  0
 19 20  1  0
 19 21  1  0
 19 22  1  0
  7 11  1  0
 13 16  1  0
 15 18  2  0
  6 23  1  0
  8 24  1  0
  9 25  1  0
 10 26  1  0
 12 27  1  0
 14 28  1  0
 15 29  1  0
 16 30  1  0
 17 31  1  0
 17 32  1  0
 17 33  1  0
 20 34  1  0
 20 35  1  0
 20 36  1  0
 21 37  1  0
 21 38  1  0
 21 39  1  0
 22 40  1  0
 22 41  1  0
 22 42  1  0
M  END
>  <Compound_ID>  (1) 
KIN-0001148

$$$$
KIN-0121148
     RDKit          3D

 56 60  0  0  0  0  0  0  0  0999 V2000
    4.0341    0.4953    1.0514 S   0  0  0  0  0  0  0  0  0  0  0  0
    2.8601    0.3129   -0.1641 C   0  0  0  0  0  0  0  0  0  0  0  0
    4.7817    1.7560    0.1505 C   0  0  0  0  0  0  0  0  0  0  0  0
    2.9700    1.1128   -1.1978 N   0  0  0  0  0  0  0  0  0  0  0  0
    1.8452   -0.6048   -0.0953 N   0  0  0  0  0  0  0  0  0  0  0  0
    4.0632    1.9439   -1.0320 C   0  0  0  0  0  0  0  0  0  0  0  0
    5.9184    2.5199    0.4694 C   0  0  0  0  0  0  0  0  0  0  0  0
    1.5590   -1.4708    0.9321 C   0  0  0  0  0  0  0  0  0  0  0  0
    4.4911    2.9364   -1.9379 C   0  0  0  0  0  0  0  0  0  0  0  0
    6.3199    3.5015   -0.4521 C   0  0  0  0  0  0  0  0  0  0  0  0
    2.2004   -1.6010    1.9693 O   0  0  0  0  0  0  0  0  0  0  0  0
    0.3492   -2.3405    0.7350 C   0  0  0  0  0  0  0  0  0  0  0  0
    5.6190    3.7127   -1.6439 C   0  0  0  0  0  0  0  0  0  0  0  0
    7.5021    4.3238   -0.1540 N   0  0  0  0  0  0  0  0  0  0  0  0
   -0.6574   -2.0944   -0.2131 C   0  0  0  0  0  0  0  0  0  0  0  0
    0.2257   -3.4591    1.5776 C   0  0  0  0  0  0  0  0  0  0  0  0
    7.8235    5.1915   -0.9789 O   0  0  0  0  0  0  0  0  0  0  0  0
    8.1061    4.1008    0.9051 O   0  0  0  0  0  0  0  0  0  0  0  0
   -0.5547   -1.0107   -1.0505 O   0  0  0  0  0  0  0  0  0  0  0  0
   -1.7210   -2.9947   -0.3583 C   0  0  0  0  0  0  0  0  0  0  0  0
   -0.8567   -4.3463    1.4650 C   0  0  0  0  0  0  0  0  0  0  0  0
   -1.6832   -0.1153   -1.0117 C   0  0  0  0  0  0  0  0  0  0  0  0
   -1.8393   -4.1151    0.4789 C   0  0  0  0  0  0  0  0  0  0  0  0
   -0.9755   -5.4648    2.3051 C   0  0  0  0  0  0  0  0  0  0  0  0
   -1.6064    0.8249    0.2090 C   0  0  0  0  0  0  0  0  0  0  0  0
   -2.9130   -5.0123    0.3554 C   0  0  0  0  0  0  0  0  0  0  0  0
   -2.0501   -6.3451    2.1731 C   0  0  0  0  0  0  0  0  0  0  0  0
   -2.6207    1.8789    0.3130 N   0  0  0  0  0  0  0  0  0  0  0  0
   -3.0173   -6.1198    1.1986 C   0  0  0  0  0  0  0  0  0  0  0  0
   -2.4352    2.9735   -0.6551 C   0  0  0  0  0  0  0  0  0  0  0  0
   -4.0135    1.4013    0.3481 C   0  0  0  0  0  0  0  0  0  0  0  0
   -3.7062    3.8283   -0.7787 C   0  0  0  0  0  0  0  0  0  0  0  0
   -4.7908    1.6956   -0.9459 C   0  0  0  0  0  0  0  0  0  0  0  0
   -4.8205    3.0853   -1.2964 O   0  0  0  0  0  0  0  0  0  0  0  0
    1.2349   -0.5892   -0.9042 H   0  0  0  0  0  0  0  0  0  0  0  0
    6.4547    2.3431    1.3978 H   0  0  0  0  0  0  0  0  0  0  0  0
    3.9397    3.0899   -2.8615 H   0  0  0  0  0  0  0  0  0  0  0  0
    5.9297    4.4750   -2.3561 H   0  0  0  0  0  0  0  0  0  0  0  0
    0.9921   -3.6466    2.3298 H   0  0  0  0  0  0  0  0  0  0  0  0
   -2.4608   -2.8381   -1.1404 H   0  0  0  0  0  0  0  0  0  0  0  0
   -2.6361   -0.6528   -1.0493 H   0  0  0  0  0  0  0  0  0  0  0  0
   -1.6224    0.4680   -1.9358 H   0  0  0  0  0  0  0  0  0  0  0  0
   -0.2260   -5.6618    3.0695 H   0  0  0  0  0  0  0  0  0  0  0  0
   -0.6077    1.2811    0.2432 H   0  0  0  0  0  0  0  0  0  0  0  0
   -1.6531    0.2185    1.1226 H   0  0  0  0  0  0  0  0  0  0  0  0
   -3.6814   -4.8553   -0.3993 H   0  0  0  0  0  0  0  0  0  0  0  0
   -2.1286   -7.2084    2.8300 H   0  0  0  0  0  0  0  0  0  0  0  0
   -3.8535   -6.8065    1.0938 H   0  0  0  0  0  0  0  0  0  0  0  0
   -2.1944    2.5819   -1.6498 H   0  0  0  0  0  0  0  0  0  0  0  0
   -1.5999    3.6038   -0.3305 H   0  0  0  0  0  0  0  0  0  0  0  0
   -4.5098    1.9337    1.1706 H   0  0  0  0  0  0  0  0  0  0  0  0
   -4.0760    0.3353    0.5976 H   0  0  0  0  0  0  0  0  0  0  0  0
   -3.5293    4.6694   -1.4578 H   0  0  0  0  0  0  0  0  0  0  0  0
   -3.9940    4.2495    0.1932 H   0  0  0  0  0  0  0  0  0  0  0  0
   -4.3566    1.1474   -1.7900 H   0  0  0  0  0  0  0  0  0  0  0  0
   -5.8287    1.3614   -0.8444 H   0  0  0  0  0  0  0  0  0  0  0  0
  1  2  1  0
  1  3  1  0
  2  4  2  0
  2  5  1  0
  3  6  1  0
  3  7  2  0
  5  8  1  0
  6  9  2  0
  7 10  1  0
  8 11  2  0
  8 12  1  0
  9 13  1  0
 10 14  1  0
 12 15  1  0
 12 16  2  0
 14 17  2  0
 14 18  1  0
 15 19  1  0
 15 20  2  0
 16 21  1  0
 19 22  1  0
 20 23  1  0
 21 24  2  0
 22 25  1  0
 23 26  2  0
 24 27  1  0
 25 28  1  0
 26 29  1  0
 28 30  1  0
 28 31  1  0
 30 32  1  0
 31 33  1  0
 32 34  1  0
  4  6  1  0
 10 13  2  0
 21 23  1  0
 27 29  2  0
 33 34  1  0
  5 35  1  0
  7 36  1  0
  9 37  1  0
 13 38  1  0
 16 39  1  0
 20 40  1  0
 22 41  1  0
 22 42  1  0
 24 43  1  0
 25 44  1  0
 25 45  1  0
 26 46  1  0
 27 47  1  0
 29 48  1  0
 30 49  1  0
 30 50  1  0
 31 51  1  0
 31 52  1  0
 32 53  1  0
 32 54  1  0
 33 55  1  0
 33 56  1  0
M  CHG  2  14   1  18  -1
M  END
>  <Compound_ID>  (2) 
KIN-0121148

$$$$
KIN-0121408
     RDKit          3D

 42 44  0  0  0  0  0  0  0  0999 V2000
    5.9511    1.6448   -0.2857 S   0  0  0  0  0  0  0  0  0  0  0  0
    6.5152    2.9736   -0.1726 O   0  0  0  0  0  0  0  0  0  0  0  0
    5.2636    1.2299   -1.4877 O   0  0  0  0  0  0  0  0  0  0  0  0
    4.9287    1.4806    1.0523 N   0  0  0  0  0  0  0  0  0  0  0  0
    7.2350    0.4744    0.1009 C   0  0  0  0  0  0  0  0  0  0  0  0
    3.9175    0.4776    0.9904 C   0  0  0  0  0  0  0  0  0  0  0  0
    2.7619    0.6700    0.2303 C   0  0  0  0  0  0  0  0  0  0  0  0
    4.1046   -0.7022    1.7034 C   0  0  0  0  0  0  0  0  0  0  0  0
    1.7792   -0.3266    0.1716 C   0  0  0  0  0  0  0  0  0  0  0  0
    3.1254   -1.6917    1.6611 C   0  0  0  0  0  0  0  0  0  0  0  0
    0.6462   -0.0674   -0.6266 N   0  0  0  0  0  0  0  0  0  0  0  0
    1.9662   -1.5030    0.9011 C   0  0  0  0  0  0  0  0  0  0  0  0
   -0.3992   -0.9195   -0.9119 C   0  0  0  0  0  0  0  0  0  0  0  0
   -0.5084   -2.0867   -0.5625 O   0  0  0  0  0  0  0  0  0  0  0  0
   -1.3453   -0.2832   -1.6901 N   0  0  0  0  0  0  0  0  0  0  0  0
   -2.5730   -0.9545   -2.0589 C   0  0  0  0  0  0  0  0  0  0  0  0
   -3.6872   -0.6053   -1.1038 C   0  0  0  0  0  0  0  0  0  0  0  0
   -4.5693    0.4486   -1.3939 C   0  0  0  0  0  0  0  0  0  0  0  0
   -3.8247   -1.3149    0.1125 C   0  0  0  0  0  0  0  0  0  0  0  0
   -5.5538    0.7425   -0.4736 C   0  0  0  0  0  0  0  0  0  0  0  0
   -4.8344   -0.9942    1.0252 C   0  0  0  0  0  0  0  0  0  0  0  0
   -6.4865    1.7247   -0.5973 O   0  0  0  0  0  0  0  0  0  0  0  0
   -5.6838    0.0402    0.7014 C   0  0  0  0  0  0  0  0  0  0  0  0
   -7.2174    1.5605    0.6364 C   0  0  0  0  0  0  0  0  0  0  0  0
   -6.7140    0.4926    1.4651 O   0  0  0  0  0  0  0  0  0  0  0  0
    4.6035    2.4061    1.3392 H   0  0  0  0  0  0  0  0  0  0  0  0
    6.8143   -0.5322    0.0997 H   0  0  0  0  0  0  0  0  0  0  0  0
    8.0037    0.5535   -0.6712 H   0  0  0  0  0  0  0  0  0  0  0  0
    7.6613    0.7246    1.0745 H   0  0  0  0  0  0  0  0  0  0  0  0
    2.6443    1.5912   -0.3336 H   0  0  0  0  0  0  0  0  0  0  0  0
    4.9983   -0.8530    2.3016 H   0  0  0  0  0  0  0  0  0  0  0  0
    3.2566   -2.6149    2.2204 H   0  0  0  0  0  0  0  0  0  0  0  0
    0.6573    0.7922   -1.1546 H   0  0  0  0  0  0  0  0  0  0  0  0
    1.2270   -2.2988    0.8970 H   0  0  0  0  0  0  0  0  0  0  0  0
   -1.4122    0.7158   -1.5788 H   0  0  0  0  0  0  0  0  0  0  0  0
   -2.8284   -0.6235   -3.0716 H   0  0  0  0  0  0  0  0  0  0  0  0
   -2.4296   -2.0399   -2.1019 H   0  0  0  0  0  0  0  0  0  0  0  0
   -4.4914    1.0217   -2.3116 H   0  0  0  0  0  0  0  0  0  0  0  0
   -3.1312   -2.1222    0.3486 H   0  0  0  0  0  0  0  0  0  0  0  0
   -4.9417   -1.5373    1.9572 H   0  0  0  0  0  0  0  0  0  0  0  0
   -8.2671    1.3552    0.3975 H   0  0  0  0  0  0  0  0  0  0  0  0
   -7.1623    2.4986    1.2004 H   0  0  0  0  0  0  0  0  0  0  0  0
  1  2  2  0
  1  3  2  0
  1  4  1  0
  1  5  1  0
  4  6  1  0
  6  7  1  0
  6  8  2  0
  7  9  2  0
  8 10  1  0
  9 11  1  0
  9 12  1  0
 11 13  1  0
 13 14  2  0
 13 15  1  0
 15 16  1  0
 16 17  1  0
 17 18  2  0
 17 19  1  0
 18 20  1  0
 19 21  2  0
 20 22  1  0
 20 23  2  0
 22 24  1  0
 23 25  1  0
 10 12  2  0
 21 23  1  0
 24 25  1  0
  4 26  1  0
  5 27  1  0
  5 28  1  0
  5 29  1  0
  7 30  1  0
  8 31  1  0
 10 32  1  0
 11 33  1  0
 12 34  1  0
 15 35  1  0
 16 36  1  0
 16 37  1  0
 18 38  1  0
 19 39  1  0
 21 40  1  0
 24 41  1  0
 24 42  1  0
M  END
>  <Compound_ID>  (3) 
KIN-0121408

$$$$
KIN-0121407
     RDKit          3D

  0  0  0  0  0  0  0  0  0  0999 V3000
M  V30 BEGIN CTAB
M  V30 COUNTS 45 46 0 0 0
M  V30 BEGIN ATOM
M  V30 1 S 6.492218 -0.514449 1.051174 0
M  V30 2 O 6.851666 0.759584 1.622831 0
M  V30 3 O 7.411827 -1.303561 0.263462 0
M  V30 4 N 5.992660 -1.531342 2.296419 0
M  V30 5 C 4.993751 -0.309193 0.126991 0
M  V30 6 C 3.979238 0.499955 0.648389 0
M  V30 7 C 4.845671 -0.934652 -1.113239 0
M  V30 8 C 2.787896 0.666682 -0.069392 0
M  V30 9 C 3.667731 -0.752233 -1.836487 0
M  V30 10 C 1.721713 1.525155 0.523379 0
M  V30 11 C 2.642461 0.046095 -1.319426 0
M  V30 12 O 1.994851 2.312033 1.422664 0
M  V30 13 N 0.446343 1.351263 0.038905 0
M  V30 14 C -0.688159 2.019241 0.650711 0
M  V30 15 C -1.962394 1.814930 -0.187913 0
M  V30 16 N -2.168075 0.408189 -0.592624 0
M  V30 17 C -2.533289 -0.485670 0.515886 0
M  V30 18 C -3.065201 0.318375 -1.751901 0
M  V30 19 C -4.008956 -0.914967 0.586925 0 CFG=2
M  V30 20 C -3.625026 -1.087651 -1.937507 0
M  V30 21 C -4.487637 -1.509051 -0.748388 0
M  V30 22 C -4.921521 0.221301 1.057971 0
M  V30 23 H 6.482650 -2.423414 2.212393 0
M  V30 24 H 4.982406 -1.648938 2.351053 0
M  V30 25 H 4.115718 1.004699 1.604681 0
M  V30 26 H 5.642271 -1.549106 -1.528740 0
M  V30 27 H 3.551310 -1.221003 -2.811596 0
M  V30 28 H 1.749822 0.195810 -1.921270 0
M  V30 29 H 0.205956 0.514164 -0.478981 0
M  V30 30 H -0.461121 3.087125 0.743939 0
M  V30 31 H -0.804229 1.618137 1.663002 0
M  V30 32 H -2.832385 2.213029 0.346406 0
M  V30 33 H -1.840309 2.422668 -1.094792 0
M  V30 34 H -2.225676 -0.082538 1.487394 0
M  V30 35 H -1.931532 -1.396110 0.389934 0
M  V30 36 H -3.901009 1.023975 -1.666959 0
M  V30 37 H -2.504252 0.598979 -2.651245 0
M  V30 38 H -4.087365 -1.704260 1.346928 0
M  V30 39 H -4.218088 -1.140361 -2.857800 0
M  V30 40 H -2.797829 -1.798626 -2.061977 0
M  V30 41 H -4.475301 -2.604585 -0.687181 0
M  V30 42 H -5.532485 -1.232611 -0.936203 0
M  V30 43 H -5.937418 -0.151693 1.228550 0
M  V30 44 H -4.987833 1.034124 0.330198 0
M  V30 45 H -4.561070 0.640502 2.003315 0
M  V30 END ATOM
M  V30 BEGIN BOND
M  V30 1 2 1 2
M  V30 2 2 1 3
M  V30 3 1 1 4
M  V30 4 1 1 5
M  V30 5 1 5 6
M  V30 6 2 5 7
M  V30 7 2 6 8
M  V30 8 1 7 9
M  V30 9 1 8 10
M  V30 10 1 8 11
M  V30 11 2 10 12
M  V30 12 1 10 13
M  V30 13 1 13 14
M  V30 14 1 14 15
M  V30 15 1 15 16
M  V30 16 1 16 17
M  V30 17 1 16 18
M  V30 18 1 17 19
M  V30 19 1 18 20
M  V30 20 1 19 21
M  V30 21 1 19 22
M  V30 22 2 9 11
M  V30 23 1 20 21
M  V30 24 1 4 23
M  V30 25 1 4 24
M  V30 26 1 6 25
M  V30 27 1 7 26
M  V30 28 1 9 27
M  V30 29 1 11 28
M  V30 30 1 13 29
M  V30 31 1 14 30
M  V30 32 1 14 31
M  V30 33 1 15 32
M  V30 34 1 15 33
M  V30 35 1 17 34
M  V30 36 1 17 35
M  V30 37 1 18 36
M  V30 38 1 18 37
M  V30 39 1 19 38 CFG=1
M  V30 40 1 20 39
M  V30 41 1 20 40
M  V30 42 1 21 41
M  V30 43 1 21 42
M  V30 44 1 22 43
M  V30 45 1 22 44
M  V30 46 1 22 45
M  V30 END BOND
M  V30 BEGIN COLLECTION
M  V30 MDLV30/STERAC1 ATOMS=(1 19)
M  V30 END COLLECTION
M  V30 END CTAB
M  END
>  <Compound_ID>  (4) 
KIN-0121407

$$$$
KIN-0112000
     RDKit          3D

 52 55  0  0  0  0  0  0  0  0999 V2000
   -1.1286    0.8972   -1.7447 O   0  0  0  0  0  0  0  0  0  0  0  0
   -1.0133   -0.1584   -1.1292 C   0  0  0  0  0  0  0  0  0  0  0  0
   -1.9611   -0.7350   -0.3031 N   0  0  0  0  0  0  0  0  0  0  0  0
    0.1984   -0.9684   -1.2175 C   0  0  0  0  0  0  0  0  0  0  0  0
   -3.2425   -0.2556    0.0232 C   0  0  0  0  0  0  0  0  0  0  0  0
    0.3182   -2.1987   -0.6069 N   0  0  0  0  0  0  0  0  0  0  0  0
    1.3662   -0.6855   -1.9074 C   0  0  0  0  0  0  0  0  0  0  0  0
   -3.7772    0.9374   -0.4595 C   0  0  0  0  0  0  0  0  0  0  0  0
   -4.0149   -1.0378    0.8884 C   0  0  0  0  0  0  0  0  0  0  0  0
    1.5165   -2.6879   -0.8875 N   0  0  0  0  0  0  0  0  0  0  0  0
    2.1679   -1.7703   -1.6363 N   0  0  0  0  0  0  0  0  0  0  0  0
    1.7364    0.3765   -2.6661 N   0  0  0  0  0  0  0  0  0  0  0  0
   -5.0643    1.3426   -0.0842 C   0  0  0  0  0  0  0  0  0  0  0  0
   -5.3006   -0.6340    1.2639 C   0  0  0  0  0  0  0  0  0  0  0  0
    3.5278   -2.0314   -2.0663 C   0  0  0  0  0  0  0  0  0  0  0  0
   -5.8430    0.5632    0.7817 C   0  0  0  0  0  0  0  0  0  0  0  0
    4.5344   -1.6247   -1.0190 C   0  0  0  0  0  0  0  0  0  0  0  0
   -7.2396    0.9856    1.2005 C   0  0  0  0  0  0  0  0  0  0  0  0
    4.9654   -0.2922   -0.9183 C   0  0  0  0  0  0  0  0  0  0  0  0
    5.0371   -2.5673   -0.1144 C   0  0  0  0  0  0  0  0  0  0  0  0
   -7.2193    2.3045    1.9771 C   0  0  0  0  0  0  0  0  0  0  0  0
   -8.1845    1.0744   -0.0006 C   0  0  0  0  0  0  0  0  0  0  0  0
    5.8978    0.1007    0.0572 C   0  0  0  0  0  0  0  0  0  0  0  0
    5.9653   -2.1910    0.8592 C   0  0  0  0  0  0  0  0  0  0  0  0
    6.4069   -0.8631    0.9559 C   0  0  0  0  0  0  0  0  0  0  0  0
    6.3327    1.4321    0.1606 C   0  0  0  0  0  0  0  0  0  0  0  0
    7.3389   -0.4704    1.9303 C   0  0  0  0  0  0  0  0  0  0  0  0
    7.2598    1.8068    1.1345 C   0  0  0  0  0  0  0  0  0  0  0  0
    7.7629    0.8565    2.0179 C   0  0  0  0  0  0  0  0  0  0  0  0
   -1.6804   -1.6174    0.1141 H   0  0  0  0  0  0  0  0  0  0  0  0
   -3.2212    1.5830   -1.1317 H   0  0  0  0  0  0  0  0  0  0  0  0
   -3.6295   -1.9739    1.2849 H   0  0  0  0  0  0  0  0  0  0  0  0
    2.4207    0.2986   -3.4128 H   0  0  0  0  0  0  0  0  0  0  0  0
    1.0081    1.0636   -2.8889 H   0  0  0  0  0  0  0  0  0  0  0  0
   -5.4488    2.2800   -0.4802 H   0  0  0  0  0  0  0  0  0  0  0  0
   -5.8736   -1.2664    1.9386 H   0  0  0  0  0  0  0  0  0  0  0  0
    3.6062   -3.1012   -2.2948 H   0  0  0  0  0  0  0  0  0  0  0  0
    3.7102   -1.4985   -3.0056 H   0  0  0  0  0  0  0  0  0  0  0  0
   -7.6478    0.2211    1.8750 H   0  0  0  0  0  0  0  0  0  0  0  0
    4.5633    0.4544   -1.6014 H   0  0  0  0  0  0  0  0  0  0  0  0
    4.7031   -3.6027   -0.1527 H   0  0  0  0  0  0  0  0  0  0  0  0
   -6.5528    2.2380    2.8442 H   0  0  0  0  0  0  0  0  0  0  0  0
   -6.8775    3.1403    1.3568 H   0  0  0  0  0  0  0  0  0  0  0  0
   -8.2219    2.5509    2.3432 H   0  0  0  0  0  0  0  0  0  0  0  0
   -9.2052    1.2975    0.3286 H   0  0  0  0  0  0  0  0  0  0  0  0
   -8.2091    0.1268   -0.5502 H   0  0  0  0  0  0  0  0  0  0  0  0
   -7.8828    1.8595   -0.7025 H   0  0  0  0  0  0  0  0  0  0  0  0
    6.3372   -2.9451    1.5496 H   0  0  0  0  0  0  0  0  0  0  0  0
    5.9484    2.1906   -0.5176 H   0  0  0  0  0  0  0  0  0  0  0  0
    7.7402   -1.1980    2.6320 H   0  0  0  0  0  0  0  0  0  0  0  0
    7.5861    2.8412    1.2040 H   0  0  0  0  0  0  0  0  0  0  0  0
    8.4833    1.1471    2.7780 H   0  0  0  0  0  0  0  0  0  0  0  0
  1  2  2  0
  2  3  1  0
  2  4  1  0
  3  5  1  0
  4  6  1  0
  4  7  2  0
  5  8  1  0
  5  9  2  0
  6 10  2  0
  7 11  1  0
  7 12  1  0
  8 13  2  0
  9 14  1  0
 11 15  1  0
 13 16  1  0
 15 17  1  0
 16 18  1  0
 17 19  2  0
 17 20  1  0
 18 21  1  0
 18 22  1  0
 19 23  1  0
 20 24  2  0
 23 25  1  0
 23 26  2  0
 25 27  2  0
 26 28  1  0
 27 29  1  0
 10 11  1  0
 14 16  2  0
 24 25  1  0
 28 29  2  0
  3 30  1  0
  8 31  1  0
  9 32  1  0
 12 33  1  0
 12 34  1  0
 13 35  1  0
 14 36  1  0
 15 37  1  0
 15 38  1  0
 18 39  1  0
 19 40  1  0
 20 41  1  0
 21 42  1  0
 21 43  1  0
 21 44  1  0
 22 45  1  0
 22 46  1  0
 22 47  1  0
 24 48  1  0
 26 49  1  0
 27 50  1  0
 28 51  1  0
 29 52  1  0
M  END
>  <Compound_ID>  (5) 
KIN-0112000

$$$$
KIN-0110941
     RDKit          3D

 66 71  0  0  0  0  0  0  0  0999 V2000
    4.4639    0.2062   -0.3689 S   0  0  0  0  0  0  0  0  0  0  0  0
    3.1898   -0.2572    0.6784 C   0  0  0  0  0  0  0  0  0  0  0  0
    5.4020    0.5050    0.9718 C   0  0  0  0  0  0  0  0  0  0  0  0
    3.4422   -0.1827    1.9722 N   0  0  0  0  0  0  0  0  0  0  0  0
    1.9741   -0.7020    0.2300 N   0  0  0  0  0  0  0  0  0  0  0  0
    6.7025    0.9451    0.9321 C   0  0  0  0  0  0  0  0  0  0  0  0
    4.7365    0.2661    2.1534 C   0  0  0  0  0  0  0  0  0  0  0  0
    1.5360   -0.8089   -1.0665 C   0  0  0  0  0  0  0  0  0  0  0  0
    7.3497    1.1649   -0.2598 N   0  0  0  0  0  0  0  0  0  0  0  0
    7.4047    1.1756    2.1039 C   0  0  0  0  0  0  0  0  0  0  0  0
    5.4374    0.5010    3.3560 C   0  0  0  0  0  0  0  0  0  0  0  0
    2.1651   -0.4966   -2.0720 O   0  0  0  0  0  0  0  0  0  0  0  0
    0.1603   -1.3928   -1.2454 C   0  0  0  0  0  0  0  0  0  0  0  0
    8.5733    1.5774   -0.0034 C   0  0  0  0  0  0  0  0  0  0  0  0
    8.9751    1.7054    1.6755 S   0  0  0  0  0  0  0  0  0  0  0  0
    6.7804    0.9613    3.3416 C   0  0  0  0  0  0  0  0  0  0  0  0
   -0.7742   -1.5537   -0.2098 C   0  0  0  0  0  0  0  0  0  0  0  0
   -0.1953   -1.7979   -2.5454 C   0  0  0  0  0  0  0  0  0  0  0  0
    9.3805    1.8521   -1.0344 O   0  0  0  0  0  0  0  0  0  0  0  0
   -0.4614   -1.1168    1.0553 O   0  0  0  0  0  0  0  0  0  0  0  0
   -1.9979   -2.1872   -0.4615 C   0  0  0  0  0  0  0  0  0  0  0  0
   -1.4435   -2.3805   -2.8172 C   0  0  0  0  0  0  0  0  0  0  0  0
   10.6793    2.3450   -0.7508 C   0  0  0  0  0  0  0  0  0  0  0  0
   -1.4396   -0.2470    1.6550 C   0  0  0  0  0  0  0  0  0  0  0  0
   -2.3529   -2.5874   -1.7584 C   0  0  0  0  0  0  0  0  0  0  0  0
   -1.8037   -2.7677   -4.1171 C   0  0  0  0  0  0  0  0  0  0  0  0
   -1.5364    1.0973    0.9266 C   0  0  0  0  0  0  0  0  0  0  0  0
   -3.5952   -3.1849   -2.0254 C   0  0  0  0  0  0  0  0  0  0  0  0
   -3.0440   -3.3555   -4.3689 C   0  0  0  0  0  0  0  0  0  0  0  0
   -2.4781    2.1001    1.5958 C   0  0  0  0  0  0  0  0  0  0  0  0
   -3.9390   -3.5636   -3.3240 C   0  0  0  0  0  0  0  0  0  0  0  0
   -3.9452    1.6809    1.8027 C   0  0  0  0  0  0  0  0  0  0  0  0
   -4.8071    1.7533    0.6122 N   0  0  0  0  0  0  0  0  0  0  0  0
   -4.4851    0.7339   -0.4104 C   0  0  0  0  0  0  0  0  0  0  0  0
   -6.2408    1.6638    0.9791 C   0  0  0  0  0  0  0  0  0  0  0  0
   -5.7113    0.2658   -1.2116 C   0  0  0  0  0  0  0  0  0  0  0  0
   -6.7964    0.2308    0.9193 C   0  0  0  0  0  0  0  0  0  0  0  0
   -6.6818   -0.3788   -0.3741 O   0  0  0  0  0  0  0  0  0  0  0  0
    1.3437   -0.9641    0.9790 H   0  0  0  0  0  0  0  0  0  0  0  0
    4.9352    0.3250    4.3033 H   0  0  0  0  0  0  0  0  0  0  0  0
    7.3091    1.1372    4.2740 H   0  0  0  0  0  0  0  0  0  0  0  0
    0.5168   -1.6600   -3.3598 H   0  0  0  0  0  0  0  0  0  0  0  0
   -2.6883   -2.3786    0.3555 H   0  0  0  0  0  0  0  0  0  0  0  0
   11.1925    2.5074   -1.7043 H   0  0  0  0  0  0  0  0  0  0  0  0
   10.6312    3.3088   -0.2325 H   0  0  0  0  0  0  0  0  0  0  0  0
   11.2658    1.6205   -0.1767 H   0  0  0  0  0  0  0  0  0  0  0  0
   -2.4057   -0.7528    1.7455 H   0  0  0  0  0  0  0  0  0  0  0  0
   -1.0939   -0.0671    2.6803 H   0  0  0  0  0  0  0  0  0  0  0  0
   -1.1159   -2.6170   -4.9468 H   0  0  0  0  0  0  0  0  0  0  0  0
   -1.8146    0.9516   -0.1195 H   0  0  0  0  0  0  0  0  0  0  0  0
   -0.5311    1.5394    0.8834 H   0  0  0  0  0  0  0  0  0  0  0  0
   -4.3114   -3.3553   -1.2239 H   0  0  0  0  0  0  0  0  0  0  0  0
   -3.3094   -3.6518   -5.3806 H   0  0  0  0  0  0  0  0  0  0  0  0
   -2.0616    2.3365    2.5838 H   0  0  0  0  0  0  0  0  0  0  0  0
   -2.4519    3.0398    1.0294 H   0  0  0  0  0  0  0  0  0  0  0  0
   -4.9052   -4.0224   -3.5185 H   0  0  0  0  0  0  0  0  0  0  0  0
   -4.0122    0.6981    2.2827 H   0  0  0  0  0  0  0  0  0  0  0  0
   -4.3387    2.3958    2.5384 H   0  0  0  0  0  0  0  0  0  0  0  0
   -4.0600   -0.1545    0.0696 H   0  0  0  0  0  0  0  0  0  0  0  0
   -3.7496    1.1474   -1.1071 H   0  0  0  0  0  0  0  0  0  0  0  0
   -6.7963    2.2831    0.2628 H   0  0  0  0  0  0  0  0  0  0  0  0
   -6.4340    2.1045    1.9646 H   0  0  0  0  0  0  0  0  0  0  0  0
   -5.4080   -0.4579   -1.9750 H   0  0  0  0  0  0  0  0  0  0  0  0
   -6.1931    1.1021   -1.7327 H   0  0  0  0  0  0  0  0  0  0  0  0
   -6.2794   -0.4133    1.6398 H   0  0  0  0  0  0  0  0  0  0  0  0
   -7.8580    0.2278    1.1858 H   0  0  0  0  0  0  0  0  0  0  0  0
  1  2  1  0
  1  3  1  0
  2  4  2  0
  2  5  1  0
  3  6  2  0
  3  7  1  0
  5  8  1  0
  6  9  1  0
  6 10  1  0
  7 11  2  0
  8 12  2  0
  8 13  1  0
  9 14  2  0
 10 15  1  0
 10 16  2  0
 13 17  1  0
 13 18  2  0
 14 19  1  0
 17 20  1  0
 17 21  2  0
 18 22  1  0
 19 23  1  0
 20 24  1  0
 21 25  1  0
 22 26  2  0
 24 27  1  0
 25 28  2  0
 26 29  1  0
 27 30  1  0
 28 31  1  0
 30 32  1  0
 32 33  1  0
 33 34  1  0
 33 35  1  0
 34 36  1  0
 35 37  1  0
 36 38  1  0
  4  7  1  0
 11 16  1  0
 14 15  1  0
 22 25  1  0
 29 31  2  0
 37 38  1  0
  5 39  1  0
 11 40  1  0
 16 41  1  0
 18 42  1  0
 21 43  1  0
 23 44  1  0
 23 45  1  0
 23 46  1  0
 24 47  1  0
 24 48  1  0
 26 49  1  0
 27 50  1  0
 27 51  1  0
 28 52  1  0
 29 53  1  0
 30 54  1  0
 30 55  1  0
 31 56  1  0
 32 57  1  0
 32 58  1  0
 34 59  1  0
 34 60  1  0
 35 61  1  0
 35 62  1  0
 36 63  1  0
 36 64  1  0
 37 65  1  0
 37 66  1  0
M  END
>  <Compound_ID>  (6) 
KIN-0110941

$$$$
KIN-0110865
     RDKit          3D

 49 51  0  0  0  0  0  0  0  0999 V2000
   -8.1467   -2.0063   -0.0667 F   0  0  0  0  0  0  0  0  0  0  0  0
   -7.2295   -1.3847    0.7259 C   0  0  0  0  0  0  0  0  0  0  0  0
   -6.0745   -2.1012    0.5736 F   0  0  0  0  0  0  0  0  0  0  0  0
   -7.6298   -1.6113    2.0078 F   0  0  0  0  0  0  0  0  0  0  0  0
   -7.0901    0.0836    0.4126 C   0  0  0  0  0  0  0  0  0  0  0  0
   -5.8653    0.7018    0.0767 C   0  0  0  0  0  0  0  0  0  0  0  0
   -8.2672    0.8623    0.4761 C   0  0  0  0  0  0  0  0  0  0  0  0
   -4.6830   -0.0772    0.0077 N   0  0  0  0  0  0  0  0  0  0  0  0
   -5.8650    2.0770   -0.1957 C   0  0  0  0  0  0  0  0  0  0  0  0
   -8.2419    2.2270    0.2074 C   0  0  0  0  0  0  0  0  0  0  0  0
   -3.3776    0.3471   -0.2117 C   0  0  0  0  0  0  0  0  0  0  0  0
   -7.0398    2.8326   -0.1297 C   0  0  0  0  0  0  0  0  0  0  0  0
   -3.0287    1.5134   -0.3306 O   0  0  0  0  0  0  0  0  0  0  0  0
   -2.5238   -0.7475   -0.2729 N   0  0  0  0  0  0  0  0  0  0  0  0
   -1.1217   -0.7418   -0.4318 C   0  0  0  0  0  0  0  0  0  0  0  0
   -0.4867   -1.9851   -0.5332 C   0  0  0  0  0  0  0  0  0  0  0  0
   -0.3419    0.4144   -0.4837 C   0  0  0  0  0  0  0  0  0  0  0  0
    0.9014   -2.0723   -0.6896 C   0  0  0  0  0  0  0  0  0  0  0  0
    1.0493    0.3370   -0.6419 C   0  0  0  0  0  0  0  0  0  0  0  0
    1.6784   -0.9084   -0.7464 C   0  0  0  0  0  0  0  0  0  0  0  0
    3.0842   -1.0098   -0.9066 N   0  0  0  0  0  0  0  0  0  0  0  0
    3.7096   -2.2100   -0.9982 N   0  0  0  0  0  0  0  0  0  0  0  0
    4.0198   -0.0044   -0.9930 C   0  0  0  0  0  0  0  0  0  0  0  0
    5.0115   -2.0004   -1.1338 N   0  0  0  0  0  0  0  0  0  0  0  0
    5.2270   -0.6524   -1.1298 C   0  0  0  0  0  0  0  0  0  0  0  0
    6.5954   -0.0923   -1.2646 C   0  0  0  0  0  0  0  0  0  0  0  0
    7.4436   -0.2408    0.0012 C   0  0  0  0  0  0  0  0  0  0  0  0
    6.9388    0.6180    1.1636 C   0  0  0  0  0  0  0  0  0  0  0  0
    7.8614    0.5188    2.3688 C   0  0  0  0  0  0  0  0  0  0  0  0
   -9.2165    0.3944    0.7381 H   0  0  0  0  0  0  0  0  0  0  0  0
   -4.7817   -1.0616    0.2192 H   0  0  0  0  0  0  0  0  0  0  0  0
   -4.9576    2.6052   -0.4732 H   0  0  0  0  0  0  0  0  0  0  0  0
   -9.1550    2.8150    0.2587 H   0  0  0  0  0  0  0  0  0  0  0  0
   -7.0063    3.8983   -0.3451 H   0  0  0  0  0  0  0  0  0  0  0  0
   -2.9568   -1.6582   -0.2707 H   0  0  0  0  0  0  0  0  0  0  0  0
   -1.0580   -2.9093   -0.4931 H   0  0  0  0  0  0  0  0  0  0  0  0
   -0.7836    1.4030   -0.4017 H   0  0  0  0  0  0  0  0  0  0  0  0
    1.3567   -3.0588   -0.7664 H   0  0  0  0  0  0  0  0  0  0  0  0
    1.6020    1.2711   -0.6764 H   0  0  0  0  0  0  0  0  0  0  0  0
    3.7705    1.0431   -0.9494 H   0  0  0  0  0  0  0  0  0  0  0  0
    6.5409    0.9647   -1.5529 H   0  0  0  0  0  0  0  0  0  0  0  0
    7.1008   -0.6123   -2.0880 H   0  0  0  0  0  0  0  0  0  0  0  0
    7.4789   -1.2933    0.3093 H   0  0  0  0  0  0  0  0  0  0  0  0
    8.4726    0.0545   -0.2387 H   0  0  0  0  0  0  0  0  0  0  0  0
    6.8695    1.6664    0.8506 H   0  0  0  0  0  0  0  0  0  0  0  0
    5.9343    0.2997    1.4630 H   0  0  0  0  0  0  0  0  0  0  0  0
    8.8693    0.8668    2.1208 H   0  0  0  0  0  0  0  0  0  0  0  0
    7.4816    1.1377    3.1882 H   0  0  0  0  0  0  0  0  0  0  0  0
    7.9312   -0.5137    2.7259 H   0  0  0  0  0  0  0  0  0  0  0  0
  1  2  1  0
  2  3  1  0
  2  4  1  0
  2  5  1  0
  5  6  1  0
  5  7  2  0
  6  8  1  0
  6  9  2  0
  7 10  1  0
  8 11  1  0
  9 12  1  0
 11 13  2  0
 11 14  1  0
 14 15  1  0
 15 16  1  0
 15 17  2  0
 16 18  2  0
 17 19  1  0
 18 20  1  0
 20 21  1  0
 21 22  1  0
 21 23  1  0
 22 24  2  0
 23 25  2  0
 25 26  1  0
 26 27  1  0
 27 28  1  0
 28 29  1  0
 10 12  2  0
 19 20  2  0
 24 25  1  0
  7 30  1  0
  8 31  1  0
  9 32  1  0
 10 33  1  0
 12 34  1  0
 14 35  1  0
 16 36  1  0
 17 37  1  0
 18 38  1  0
 19 39  1  0
 23 40  1  0
 26 41  1  0
 26 42  1  0
 27 43  1  0
 27 44  1  0
 28 45  1  0
 28 46  1  0
 29 47  1  0
 29 48  1  0
 29 49  1  0
M  END
>  <Compound_ID>  (7) 
KIN-0110865

$$$$
KIN-0000865
     RDKit          3D

  0  0  0  0  0  0  0  0  0  0999 V3000
M  V30 BEGIN CTAB
M  V30 COUNTS 46 48 0 0 0
M  V30 BEGIN ATOM
M  V30 1 S 2.252062 2.171874 -0.850536 0
M  V30 2 O 2.614646 2.189820 -2.250838 0
M  V30 3 O 2.148890 3.393569 -0.080300 0
M  V30 4 N 0.757811 1.341721 -0.686349 0
M  V30 5 C 3.393024 1.081707 -0.033665 0
M  V30 6 C 0.264504 1.226484 0.713946 0
M  V30 7 C -0.300692 1.884469 -1.584341 0
M  V30 8 C 3.579554 -0.208253 -0.548731 0
M  V30 9 C 4.089351 1.513950 1.098769 0
M  V30 10 C -0.914574 0.255948 0.760336 0
M  V30 11 C -1.496936 0.936882 -1.590383 0
M  V30 12 C 4.474362 -1.084540 0.077466 0
M  V30 13 C 4.970795 0.637096 1.729618 0
M  V30 14 C -2.046274 0.732148 -0.167643 0
M  V30 15 C 5.151191 -0.648473 1.221572 0
M  V30 16 C 4.673610 -2.479142 -0.432385 0
M  V30 17 N -3.255428 -0.102737 -0.196455 0
M  V30 18 F 5.994974 -1.477720 1.852056 0
M  V30 19 C -3.982918 -0.186769 1.077095 0
M  V30 20 C -3.105221 -1.483094 -0.662442 0
M  V30 21 C -5.077045 -1.188398 0.716411 0 CFG=2
M  V30 22 C -4.363211 -2.203528 -0.168609 0
M  V30 23 O -6.099063 -0.538615 -0.043537 0
M  V30 24 H 1.051887 0.836205 1.365493 0
M  V30 25 H -0.037612 2.209735 1.093126 0
M  V30 26 H 0.077283 1.961650 -2.609131 0
M  V30 27 H -0.602067 2.884752 -1.251963 0
M  V30 28 H 3.029705 -0.520711 -1.435161 0
M  V30 29 H 3.952093 2.518998 1.491266 0
M  V30 30 H -0.562373 -0.738966 0.463996 0
M  V30 31 H -1.263820 0.183790 1.795742 0
M  V30 32 H -2.277386 1.347717 -2.242529 0
M  V30 33 H -1.184534 -0.022666 -2.021943 0
M  V30 34 H 5.521224 0.944394 2.613838 0
M  V30 35 H -2.364769 1.723091 0.186886 0
M  V30 36 H 5.732003 -2.757209 -0.393931 0
M  V30 37 H 4.351801 -2.568971 -1.475249 0
M  V30 38 H 4.095504 -3.185129 0.171771 0
M  V30 39 H -4.395554 0.785786 1.362624 0
M  V30 40 H -3.359899 -0.583527 1.885666 0
M  V30 41 H -2.224828 -1.979970 -0.241929 0
M  V30 42 H -3.037595 -1.531085 -1.753921 0
M  V30 43 H -5.542590 -1.647019 1.592920 0
M  V30 44 H -4.070423 -3.081109 0.418826 0
M  V30 45 H -4.988864 -2.532526 -1.005002 0
M  V30 46 H -5.622598 -0.011628 -0.714848 0
M  V30 END ATOM
M  V30 BEGIN BOND
M  V30 1 2 1 2
M  V30 2 2 1 3
M  V30 3 1 1 4
M  V30 4 1 1 5
M  V30 5 1 4 6
M  V30 6 1 4 7
M  V30 7 2 5 8
M  V30 8 1 5 9
M  V30 9 1 6 10
M  V30 10 1 7 11
M  V30 11 1 8 12
M  V30 12 2 9 13
M  V30 13 1 10 14
M  V30 14 2 12 15
M  V30 15 1 12 16
M  V30 16 1 14 17
M  V30 17 1 15 18
M  V30 18 1 17 19
M  V30 19 1 17 20
M  V30 20 1 19 21
M  V30 21 1 20 22
M  V30 22 1 21 23
M  V30 23 1 11 14
M  V30 24 1 13 15
M  V30 25 1 21 22
M  V30 26 1 6 24
M  V30 27 1 6 25
M  V30 28 1 7 26
M  V30 29 1 7 27
M  V30 30 1 8 28
M  V30 31 1 9 29
M  V30 32 1 10 30
M  V30 33 1 10 31
M  V30 34 1 11 32
M  V30 35 1 11 33
M  V30 36 1 13 34
M  V30 37 1 14 35
M  V30 38 1 16 36
M  V30 39 1 16 37
M  V30 40 1 16 38
M  V30 41 1 19 39
M  V30 42 1 19 40
M  V30 43 1 20 41
M  V30 44 1 20 42
M  V30 45 1 21 43 CFG=1
M  V30 46 1 22 44
M  V30 47 1 22 45
M  V30 48 1 23 46
M  V30 END BOND
M  V30 BEGIN COLLECTION
M  V30 MDLV30/STERAC1 ATOMS=(1 21)
M  V30 END COLLECTION
M  V30 END CTAB
M  END
>  <Compound_ID>  (8) 
KIN-0000865

$$$$
KIN-0111501
     RDKit          3D

 57 63  0  0  0  0  0  0  0  0999 V2000
    4.2761   -0.4272    0.6995 S   0  0  0  0  0  0  0  0  0  0  0  0
    2.7757   -0.4522   -0.1252 C   0  0  0  0  0  0  0  0  0  0  0  0
    4.5178   -2.0015    0.2243 C   0  0  0  0  0  0  0  0  0  0  0  0
    2.4593   -1.5835   -0.7270 N   0  0  0  0  0  0  0  0  0  0  0  0
    1.9272    0.6218   -0.1693 N   0  0  0  0  0  0  0  0  0  0  0  0
    5.6265   -2.7488    0.5388 C   0  0  0  0  0  0  0  0  0  0  0  0
    3.4781   -2.4970   -0.5306 C   0  0  0  0  0  0  0  0  0  0  0  0
    2.0810    1.8506    0.4238 C   0  0  0  0  0  0  0  0  0  0  0  0
    6.6506   -2.2299    1.3000 N   0  0  0  0  0  0  0  0  0  0  0  0
    5.7428   -4.0592    0.0957 C   0  0  0  0  0  0  0  0  0  0  0  0
    3.5822   -3.8286   -0.9894 C   0  0  0  0  0  0  0  0  0  0  0  0
    3.0510    2.2255    1.0734 O   0  0  0  0  0  0  0  0  0  0  0  0
    0.9425    2.8157    0.2292 C   0  0  0  0  0  0  0  0  0  0  0  0
    7.5619   -3.1702    1.4343 C   0  0  0  0  0  0  0  0  0  0  0  0
    7.2370   -4.6808    0.6696 S   0  0  0  0  0  0  0  0  0  0  0  0
    4.7179   -4.6226   -0.6803 C   0  0  0  0  0  0  0  0  0  0  0  0
   -0.3435    2.4481   -0.2052 C   0  0  0  0  0  0  0  0  0  0  0  0
    1.1965    4.1650    0.5341 C   0  0  0  0  0  0  0  0  0  0  0  0
   -0.5889    1.1313   -0.5080 O   0  0  0  0  0  0  0  0  0  0  0  0
   -1.3304    3.4294   -0.3758 C   0  0  0  0  0  0  0  0  0  0  0  0
    0.2065    5.1491    0.3884 C   0  0  0  0  0  0  0  0  0  0  0  0
   -1.8657    0.6352   -0.0747 C   0  0  0  0  0  0  0  0  0  0  0  0
   -1.0723    4.7773   -0.0779 C   0  0  0  0  0  0  0  0  0  0  0  0
    0.4640    6.4958    0.6912 C   0  0  0  0  0  0  0  0  0  0  0  0
   -1.7542   -0.8896    0.0664 C   0  0  0  0  0  0  0  0  0  0  0  0
   -2.0592    5.7646   -0.2347 C   0  0  0  0  0  0  0  0  0  0  0  0
   -0.5278    7.4646    0.5328 C   0  0  0  0  0  0  0  0  0  0  0  0
   -3.0259   -1.4883    0.4894 N   0  0  0  0  0  0  0  0  0  0  0  0
   -1.7880    7.0995    0.0694 C   0  0  0  0  0  0  0  0  0  0  0  0
   -2.8856   -2.9739    0.5932 C   0  0  0  0  0  0  0  0  0  0  0  0
   -3.9504   -1.6707   -0.6719 C   0  0  0  0  0  0  0  0  0  0  0  0
   -4.1562   -3.0741   -0.1909 C   0  0  0  0  0  0  0  0  0  0  0  0
   -5.4300   -3.4478    0.4909 C   0  0  0  0  0  0  0  0  0  0  0  0
   -4.3879   -4.1867   -1.1485 C   0  0  0  0  0  0  0  0  0  0  0  0
   -5.6537   -4.5017   -0.4959 O   0  0  0  0  0  0  0  0  0  0  0  0
    1.0765    0.4390   -0.6866 H   0  0  0  0  0  0  0  0  0  0  0  0
    2.7773   -4.2470   -1.5876 H   0  0  0  0  0  0  0  0  0  0  0  0
    8.4741   -3.0123    1.9954 H   0  0  0  0  0  0  0  0  0  0  0  0
    4.7859   -5.6458   -1.0386 H   0  0  0  0  0  0  0  0  0  0  0  0
    2.1864    4.4534    0.8881 H   0  0  0  0  0  0  0  0  0  0  0  0
   -2.3112    3.1571   -0.7567 H   0  0  0  0  0  0  0  0  0  0  0  0
   -2.1500    1.0713    0.8919 H   0  0  0  0  0  0  0  0  0  0  0  0
   -2.6185    0.8885   -0.8297 H   0  0  0  0  0  0  0  0  0  0  0  0
    1.4438    6.8011    1.0534 H   0  0  0  0  0  0  0  0  0  0  0  0
   -1.3685   -1.3202   -0.8681 H   0  0  0  0  0  0  0  0  0  0  0  0
   -0.9877   -1.1011    0.8240 H   0  0  0  0  0  0  0  0  0  0  0  0
   -3.0517    5.5013   -0.5942 H   0  0  0  0  0  0  0  0  0  0  0  0
   -0.3145    8.5035    0.7711 H   0  0  0  0  0  0  0  0  0  0  0  0
   -2.5611    7.8534   -0.0548 H   0  0  0  0  0  0  0  0  0  0  0  0
   -2.9144   -3.3531    1.6192 H   0  0  0  0  0  0  0  0  0  0  0  0
   -2.0097   -3.4021    0.0893 H   0  0  0  0  0  0  0  0  0  0  0  0
   -3.4876   -1.5969   -1.6639 H   0  0  0  0  0  0  0  0  0  0  0  0
   -4.8261   -1.0149   -0.6501 H   0  0  0  0  0  0  0  0  0  0  0  0
   -5.3431   -3.8681    1.4969 H   0  0  0  0  0  0  0  0  0  0  0  0
   -6.2362   -2.7095    0.4657 H   0  0  0  0  0  0  0  0  0  0  0  0
   -3.6959   -5.0315   -1.0894 H   0  0  0  0  0  0  0  0  0  0  0  0
   -4.5430   -3.9052   -2.1937 H   0  0  0  0  0  0  0  0  0  0  0  0
  1  2  1  0
  1  3  1  0
  2  4  2  0
  2  5  1  0
  3  6  2  0
  3  7  1  0
  5  8  1  0
  6  9  1  0
  6 10  1  0
  7 11  2  0
  8 12  2  0
  8 13  1  0
  9 14  2  0
 10 15  1  0
 10 16  2  0
 13 17  1  0
 13 18  2  0
 17 19  1  0
 17 20  2  0
 18 21  1  0
 19 22  1  0
 20 23  1  0
 21 24  2  0
 22 25  1  0
 23 26  2  0
 24 27  1  0
 25 28  1  0
 26 29  1  0
 28 30  1  0
 28 31  1  0
 30 32  1  0
 32 33  1  0
 32 34  1  0
 33 35  1  0
  4  7  1  0
 11 16  1  0
 14 15  1  0
 21 23  1  0
 27 29  2  0
 31 32  1  0
 34 35  1  0
  5 36  1  0
 11 37  1  0
 14 38  1  0
 16 39  1  0
 18 40  1  0
 20 41  1  0
 22 42  1  0
 22 43  1  0
 24 44  1  0
 25 45  1  0
 25 46  1  0
 26 47  1  0
 27 48  1  0
 29 49  1  0
 30 50  1  0
 30 51  1  0
 31 52  1  0
 31 53  1  0
 33 54  1  0
 33 55  1  0
 34 56  1  0
 34 57  1  0
M  END
>  <Compound_ID>  (9) 
KIN-0111501

$$$$
KIN-0001312
     RDKit          3D

 57 62  0  0  0  0  0  0  0  0999 V2000
    3.1864   -1.5671    0.5147 S   0  0  0  0  0  0  0  0  0  0  0  0
    2.6938   -0.1530    1.3895 C   0  0  0  0  0  0  0  0  0  0  0  0
    4.6800   -0.8695    0.3059 C   0  0  0  0  0  0  0  0  0  0  0  0
    3.6178    0.7818    1.5123 N   0  0  0  0  0  0  0  0  0  0  0  0
    1.4334   -0.0762    1.8750 N   0  0  0  0  0  0  0  0  0  0  0  0
    5.7210   -1.4569   -0.3710 C   0  0  0  0  0  0  0  0  0  0  0  0
    4.7788    0.3731    0.8862 C   0  0  0  0  0  0  0  0  0  0  0  0
    0.8340    1.2336    2.0599 C   0  0  0  0  0  0  0  0  0  0  0  0
    5.5911   -2.7012   -0.9496 N   0  0  0  0  0  0  0  0  0  0  0  0
    6.9396   -0.8037   -0.4950 C   0  0  0  0  0  0  0  0  0  0  0  0
    6.0139    1.0490    0.7714 C   0  0  0  0  0  0  0  0  0  0  0  0
    0.3421    1.7939    0.7429 C   0  0  0  0  0  0  0  0  0  0  0  0
    6.7392   -2.9915   -1.5255 C   0  0  0  0  0  0  0  0  0  0  0  0
    7.9938   -1.8162   -1.3957 S   0  0  0  0  0  0  0  0  0  0  0  0
    7.1069    0.4664    0.0781 C   0  0  0  0  0  0  0  0  0  0  0  0
   -0.8139    1.2971    0.1194 C   0  0  0  0  0  0  0  0  0  0  0  0
    1.0853    2.8081    0.1121 C   0  0  0  0  0  0  0  0  0  0  0  0
   -1.4609    0.2873    0.7850 O   0  0  0  0  0  0  0  0  0  0  0  0
   -1.2255    1.8399   -1.1021 C   0  0  0  0  0  0  0  0  0  0  0  0
    0.6834    3.3495   -1.1155 C   0  0  0  0  0  0  0  0  0  0  0  0
   -2.5491   -0.3569    0.1127 C   0  0  0  0  0  0  0  0  0  0  0  0
   -0.4894    2.8623   -1.7295 C   0  0  0  0  0  0  0  0  0  0  0  0
    1.4232    4.3641   -1.7453 C   0  0  0  0  0  0  0  0  0  0  0  0
   -3.0035   -1.5409    0.9823 C   0  0  0  0  0  0  0  0  0  0  0  0
   -0.8923    3.4078   -2.9601 C   0  0  0  0  0  0  0  0  0  0  0  0
    1.0085    4.8959   -2.9666 C   0  0  0  0  0  0  0  0  0  0  0  0
   -4.0947   -2.3204    0.3766 N   0  0  0  0  0  0  0  0  0  0  0  0
   -0.1487    4.4188   -3.5735 C   0  0  0  0  0  0  0  0  0  0  0  0
   -4.1647   -3.6704    0.9831 C   0  0  0  0  0  0  0  0  0  0  0  0
   -5.4106   -1.6453    0.4637 C   0  0  0  0  0  0  0  0  0  0  0  0
   -5.5370   -4.3235    0.7596 C   0  0  0  0  0  0  0  0  0  0  0  0
   -6.3255   -2.2109    1.5644 C   0  0  0  0  0  0  0  0  0  0  0  0
   -6.6005   -3.6101    1.4086 O   0  0  0  0  0  0  0  0  0  0  0  0
    0.7751   -0.7500    1.4955 H   0  0  0  0  0  0  0  0  0  0  0  0
   -0.0142    1.1431    2.7498 H   0  0  0  0  0  0  0  0  0  0  0  0
    1.5260    1.9292    2.5520 H   0  0  0  0  0  0  0  0  0  0  0  0
    6.1216    2.0297    1.2257 H   0  0  0  0  0  0  0  0  0  0  0  0
    6.8969   -3.9184   -2.0599 H   0  0  0  0  0  0  0  0  0  0  0  0
    8.0509    0.9978   -0.0038 H   0  0  0  0  0  0  0  0  0  0  0  0
    1.9982    3.1667    0.5863 H   0  0  0  0  0  0  0  0  0  0  0  0
   -2.1231    1.4810   -1.5945 H   0  0  0  0  0  0  0  0  0  0  0  0
   -2.2183   -0.7361   -0.8626 H   0  0  0  0  0  0  0  0  0  0  0  0
   -3.3693    0.3581   -0.0198 H   0  0  0  0  0  0  0  0  0  0  0  0
    2.3312    4.7484   -1.2857 H   0  0  0  0  0  0  0  0  0  0  0  0
   -3.2727   -1.1900    1.9877 H   0  0  0  0  0  0  0  0  0  0  0  0
   -2.1231   -2.1845    1.1223 H   0  0  0  0  0  0  0  0  0  0  0  0
   -1.7914    3.0463   -3.4544 H   0  0  0  0  0  0  0  0  0  0  0  0
    1.5899    5.6819   -3.4433 H   0  0  0  0  0  0  0  0  0  0  0  0
   -0.4726    4.8308   -4.5263 H   0  0  0  0  0  0  0  0  0  0  0  0
   -3.9855   -3.6119    2.0654 H   0  0  0  0  0  0  0  0  0  0  0  0
   -3.3815   -4.2995    0.5445 H   0  0  0  0  0  0  0  0  0  0  0  0
   -5.9059   -1.7976   -0.5036 H   0  0  0  0  0  0  0  0  0  0  0  0
   -5.3114   -0.5619    0.5911 H   0  0  0  0  0  0  0  0  0  0  0  0
   -5.7709   -4.3888   -0.3098 H   0  0  0  0  0  0  0  0  0  0  0  0
   -5.5387   -5.3446    1.1562 H   0  0  0  0  0  0  0  0  0  0  0  0
   -7.2876   -1.6867    1.5586 H   0  0  0  0  0  0  0  0  0  0  0  0
   -5.8792   -2.0578    2.5543 H   0  0  0  0  0  0  0  0  0  0  0  0
  1  2  1  0
  1  3  1  0
  2  4  2  0
  2  5  1  0
  3  6  2  0
  3  7  1  0
  5  8  1  0
  6  9  1  0
  6 10  1  0
  7 11  2  0
  8 12  1  0
  9 13  2  0
 10 14  1  0
 10 15  2  0
 12 16  1  0
 12 17  2  0
 16 18  1  0
 16 19  2  0
 17 20  1  0
 18 21  1  0
 19 22  1  0
 20 23  2  0
 21 24  1  0
 22 25  2  0
 23 26  1  0
 24 27  1  0
 25 28  1  0
 27 29  1  0
 27 30  1  0
 29 31  1  0
 30 32  1  0
 31 33  1  0
  4  7  1  0
 11 15  1  0
 13 14  1  0
 20 22  1  0
 26 28  2  0
 32 33  1  0
  5 34  1  0
  8 35  1  0
  8 36  1  0
 11 37  1  0
 13 38  1  0
 15 39  1  0
 17 40  1  0
 19 41  1  0
 21 42  1  0
 21 43  1  0
 23 44  1  0
 24 45  1  0
 24 46  1  0
 25 47  1  0
 26 48  1  0
 28 49  1  0
 29 50  1  0
 29 51  1  0
 30 52  1  0
 30 53  1  0
 31 54  1  0
 31 55  1  0
 32 56  1  0
 32 57  1  0
M  END
>  <Compound_ID>  (10) 
KIN-0001312

$$$$
KIN-0111312
     RDKit          3D

 48 51  0  0  0  0  0  0  0  0999 V2000
    6.2607    1.9690    0.9695 O   0  0  0  0  0  0  0  0  0  0  0  0
    5.8383    0.8272    1.0605 C   0  0  0  0  0  0  0  0  0  0  0  0
    6.2446   -0.0971    1.9667 O   0  0  0  0  0  0  0  0  0  0  0  0
    4.7861    0.2655    0.1692 C   0  0  0  0  0  0  0  0  0  0  0  0
    7.2514    0.3738    2.8640 C   0  0  0  0  0  0  0  0  0  0  0  0
    4.2754   -1.0283    0.3285 C   0  0  0  0  0  0  0  0  0  0  0  0
    4.2927    1.0726   -0.8616 C   0  0  0  0  0  0  0  0  0  0  0  0
    3.2792   -1.5036   -0.5304 C   0  0  0  0  0  0  0  0  0  0  0  0
    3.2984    0.5943   -1.7196 C   0  0  0  0  0  0  0  0  0  0  0  0
    2.7756   -0.6965   -1.5595 C   0  0  0  0  0  0  0  0  0  0  0  0
    1.6912   -1.2119   -2.4842 C   0  0  0  0  0  0  0  0  0  0  0  0
    0.3008   -0.9543   -2.0805 N   0  0  0  0  0  0  0  0  0  0  0  0
   -0.0823   -1.6273   -0.8380 C   0  0  0  0  0  0  0  0  0  0  0  0
   -0.0539    0.4668   -2.0820 C   0  0  0  0  0  0  0  0  0  0  0  0
   -1.5878   -1.5066   -0.5975 C   0  0  0  0  0  0  0  0  0  0  0  0
   -1.5583    0.6499   -1.8773 C   0  0  0  0  0  0  0  0  0  0  0  0
   -2.0169   -0.0373   -0.5881 C   0  0  0  0  0  0  0  0  0  0  0  0
   -3.4862    0.0898   -0.4034 C   0  0  0  0  0  0  0  0  0  0  0  0
   -3.9214    0.5690    0.8022 O   0  0  0  0  0  0  0  0  0  0  0  0
   -4.4720   -0.1879   -1.2275 N   0  0  0  0  0  0  0  0  0  0  0  0
   -5.2799    0.5628    0.6313 C   0  0  0  0  0  0  0  0  0  0  0  0
   -5.6368    0.1230   -0.5569 N   0  0  0  0  0  0  0  0  0  0  0  0
   -6.2791    1.0407    1.7183 C   0  0  0  0  0  0  0  0  0  0  0  0
   -6.4973    0.1809    2.9386 C   0  0  0  0  0  0  0  0  0  0  0  0
   -7.5819    0.3082    1.9072 C   0  0  0  0  0  0  0  0  0  0  0  0
    8.1570    0.6454    2.3125 H   0  0  0  0  0  0  0  0  0  0  0  0
    7.4983   -0.4377    3.5572 H   0  0  0  0  0  0  0  0  0  0  0  0
    6.8782    1.2236    3.4471 H   0  0  0  0  0  0  0  0  0  0  0  0
    4.6406   -1.6793    1.1182 H   0  0  0  0  0  0  0  0  0  0  0  0
    4.6807    2.0794   -1.0009 H   0  0  0  0  0  0  0  0  0  0  0  0
    2.8951   -2.5122   -0.3899 H   0  0  0  0  0  0  0  0  0  0  0  0
    2.9320    1.2382   -2.5151 H   0  0  0  0  0  0  0  0  0  0  0  0
    1.8277   -2.2934   -2.6230 H   0  0  0  0  0  0  0  0  0  0  0  0
    1.8562   -0.7952   -3.4876 H   0  0  0  0  0  0  0  0  0  0  0  0
    0.4515   -1.2060    0.0229 H   0  0  0  0  0  0  0  0  0  0  0  0
    0.1683   -2.6943   -0.8937 H   0  0  0  0  0  0  0  0  0  0  0  0
    0.4828    1.0132   -1.2958 H   0  0  0  0  0  0  0  0  0  0  0  0
    0.2159    0.9238   -3.0422 H   0  0  0  0  0  0  0  0  0  0  0  0
   -1.8460   -1.9848    0.3555 H   0  0  0  0  0  0  0  0  0  0  0  0
   -2.1289   -2.0576   -1.3786 H   0  0  0  0  0  0  0  0  0  0  0  0
   -1.7949    1.7210   -1.8409 H   0  0  0  0  0  0  0  0  0  0  0  0
   -2.0972    0.2408   -2.7428 H   0  0  0  0  0  0  0  0  0  0  0  0
   -1.5193    0.4609    0.2570 H   0  0  0  0  0  0  0  0  0  0  0  0
   -6.2896    2.1141    1.8581 H   0  0  0  0  0  0  0  0  0  0  0  0
   -6.6320    0.6829    3.8892 H   0  0  0  0  0  0  0  0  0  0  0  0
   -5.9730   -0.7659    3.0077 H   0  0  0  0  0  0  0  0  0  0  0  0
   -8.4533    0.8965    2.1554 H   0  0  0  0  0  0  0  0  0  0  0  0
   -7.7908   -0.5517    1.2801 H   0  0  0  0  0  0  0  0  0  0  0  0
  1  2  2  0
  2  3  1  0
  2  4  1  0
  3  5  1  0
  4  6  1  0
  4  7  2  0
  6  8  2  0
  7  9  1  0
  8 10  1  0
 10 11  1  0
 11 12  1  0
 12 13  1  0
 12 14  1  0
 13 15  1  0
 14 16  1  0
 15 17  1  0
 17 18  1  0
 18 19  1  0
 18 20  2  0
 19 21  1  0
 20 22  1  0
 21 23  1  0
 23 24  1  0
 23 25  1  0
  9 10  2  0
 16 17  1  0
 21 22  2  0
 24 25  1  0
  5 26  1  0
  5 27  1  0
  5 28  1  0
  6 29  1  0
  7 30  1  0
  8 31  1  0
  9 32  1  0
 11 33  1  0
 11 34  1  0
 13 35  1  0
 13 36  1  0
 14 37  1  0
 14 38  1  0
 15 39  1  0
 15 40  1  0
 16 41  1  0
 16 42  1  0
 17 43  1  0
 23 44  1  0
 24 45  1  0
 24 46  1  0
 25 47  1  0
 25 48  1  0
M  END
>  <Compound_ID>  (11) 
KIN-0111312

$$$$
KIN-0121312
     RDKit          3D

 47 48  0  0  0  0  0  0  0  0999 V2000
   -3.2613    2.8705    0.3454 S   0  0  0  0  0  0  0  0  0  0  0  0
   -2.4546    1.3798    0.0557 C   0  0  0  0  0  0  0  0  0  0  0  0
   -4.7532    2.0338    0.4223 C   0  0  0  0  0  0  0  0  0  0  0  0
   -3.2354    0.3211    0.0073 N   0  0  0  0  0  0  0  0  0  0  0  0
   -0.9684    1.3659   -0.1328 C   0  0  0  0  0  0  0  0  0  0  0  0
   -4.5640    0.6768    0.2158 C   0  0  0  0  0  0  0  0  0  0  0  0
   -0.4321   -0.0516   -0.3427 C   0  0  0  0  0  0  0  0  0  0  0  0
   -5.6089   -0.4304    0.2291 C   0  0  0  0  0  0  0  0  0  0  0  0
    0.9896   -0.0803   -0.6599 N   0  0  0  0  0  0  0  0  0  0  0  0
   -7.0399    0.1181    0.0563 C   0  0  0  0  0  0  0  0  0  0  0  0
   -5.5324   -1.1851    1.5706 C   0  0  0  0  0  0  0  0  0  0  0  0
   -5.3463   -1.4277   -0.9197 C   0  0  0  0  0  0  0  0  0  0  0  0
    1.9233    0.1787    0.3114 C   0  0  0  0  0  0  0  0  0  0  0  0
    1.6640    0.5409    1.4498 O   0  0  0  0  0  0  0  0  0  0  0  0
    3.1929   -0.0148   -0.1643 N   0  0  0  0  0  0  0  0  0  0  0  0
    4.3126    0.3097    0.6889 C   0  0  0  0  0  0  0  0  0  0  0  0
    5.5581   -0.0945   -0.0005 C   0  0  0  0  0  0  0  0  0  0  0  0
    6.0556   -1.3667   -0.1872 C   0  0  0  0  0  0  0  0  0  0  0  0
    6.5282    0.7363   -0.6265 C   0  0  0  0  0  0  0  0  0  0  0  0
    7.2209   -1.3024   -0.8812 O   0  0  0  0  0  0  0  0  0  0  0  0
    5.5939   -2.7166    0.1832 C   0  0  0  0  0  0  0  0  0  0  0  0
    7.5229    0.0154   -1.1558 N   0  0  0  0  0  0  0  0  0  0  0  0
    6.5403    2.2130   -0.7399 C   0  0  0  0  0  0  0  0  0  0  0  0
   -5.6711    2.5678    0.6150 H   0  0  0  0  0  0  0  0  0  0  0  0
   -0.4883    1.8260    0.7389 H   0  0  0  0  0  0  0  0  0  0  0  0
   -0.7092    1.9824   -1.0030 H   0  0  0  0  0  0  0  0  0  0  0  0
   -0.9439   -0.5328   -1.1845 H   0  0  0  0  0  0  0  0  0  0  0  0
   -0.5997   -0.6684    0.5485 H   0  0  0  0  0  0  0  0  0  0  0  0
    1.2771   -0.7918   -1.3174 H   0  0  0  0  0  0  0  0  0  0  0  0
   -7.1404    0.6857   -0.8779 H   0  0  0  0  0  0  0  0  0  0  0  0
   -7.7744   -0.6959    0.0319 H   0  0  0  0  0  0  0  0  0  0  0  0
   -7.3204    0.7829    0.8836 H   0  0  0  0  0  0  0  0  0  0  0  0
   -4.5395   -1.6237    1.7275 H   0  0  0  0  0  0  0  0  0  0  0  0
   -6.2659   -1.9983    1.6119 H   0  0  0  0  0  0  0  0  0  0  0  0
   -5.7281   -0.5133    2.4155 H   0  0  0  0  0  0  0  0  0  0  0  0
   -4.3707   -1.9169   -0.8158 H   0  0  0  0  0  0  0  0  0  0  0  0
   -5.3582   -0.9213   -1.8926 H   0  0  0  0  0  0  0  0  0  0  0  0
   -6.1059   -2.2180   -0.9429 H   0  0  0  0  0  0  0  0  0  0  0  0
    3.3002    0.1842   -1.1486 H   0  0  0  0  0  0  0  0  0  0  0  0
    4.2009   -0.2124    1.6469 H   0  0  0  0  0  0  0  0  0  0  0  0
    4.2915    1.3868    0.8913 H   0  0  0  0  0  0  0  0  0  0  0  0
    5.1086   -3.1994   -0.6709 H   0  0  0  0  0  0  0  0  0  0  0  0
    6.4344   -3.3405    0.5010 H   0  0  0  0  0  0  0  0  0  0  0  0
    4.8755   -2.6769    1.0064 H   0  0  0  0  0  0  0  0  0  0  0  0
    5.5928    2.5741   -1.1534 H   0  0  0  0  0  0  0  0  0  0  0  0
    7.3471    2.5625   -1.3928 H   0  0  0  0  0  0  0  0  0  0  0  0
    6.6818    2.6672    0.2456 H   0  0  0  0  0  0  0  0  0  0  0  0
  1  2  1  0
  1  3  1  0
  2  4  2  0
  2  5  1  0
  3  6  2  0
  5  7  1  0
  6  8  1  0
  7  9  1  0
  8 10  1  0
  8 11  1  0
  8 12  1  0
  9 13  1  0
 13 14  2  0
 13 15  1  0
 15 16  1  0
 16 17  1  0
 17 18  2  0
 17 19  1  0
 18 20  1  0
 18 21  1  0
 19 22  2  0
 19 23  1  0
  4  6  1  0
 20 22  1  0
  3 24  1  0
  5 25  1  0
  5 26  1  0
  7 27  1  0
  7 28  1  0
  9 29  1  0
 10 30  1  0
 10 31  1  0
 10 32  1  0
 11 33  1  0
 11 34  1  0
 11 35  1  0
 12 36  1  0
 12 37  1  0
 12 38  1  0
 15 39  1  0
 16 40  1  0
 16 41  1  0
 21 42  1  0
 21 43  1  0
 21 44  1  0
 23 45  1  0
 23 46  1  0
 23 47  1  0
M  END
>  <Compound_ID>  (12) 
KIN-0121312

$$$$
KIN5059
     RDKit          3D

 39 41  0  0  0  0  0  0  0  0999 V2000
    4.5259   -0.1961    3.0651 F   0  0  0  0  0  0  0  0  0  0  0  0
    4.9492   -0.1774    1.7939 C   0  0  0  0  0  0  0  0  0  0  0  0
    4.0543   -0.1384    0.7255 C   0  0  0  0  0  0  0  0  0  0  0  0
    6.3257   -0.1978    1.5680 C   0  0  0  0  0  0  0  0  0  0  0  0
    2.5948   -0.1168    0.9321 C   0  0  0  0  0  0  0  0  0  0  0  0
    4.5518   -0.1190   -0.5764 C   0  0  0  0  0  0  0  0  0  0  0  0
    6.8188   -0.1789    0.2642 C   0  0  0  0  0  0  0  0  0  0  0  0
    2.1060   -0.1268    2.0545 O   0  0  0  0  0  0  0  0  0  0  0  0
    1.7484   -0.0843   -0.2979 C   0  0  0  0  0  0  0  0  0  0  0  0
    3.7428   -0.0779   -1.6827 O   0  0  0  0  0  0  0  0  0  0  0  0
    5.9299   -0.1391   -0.8100 C   0  0  0  0  0  0  0  0  0  0  0  0
    0.2745   -0.0446   -0.2459 C   0  0  0  0  0  0  0  0  0  0  0  0
    2.3859   -0.0586   -1.4787 C   0  0  0  0  0  0  0  0  0  0  0  0
   -0.3863    0.8697    0.5776 C   0  0  0  0  0  0  0  0  0  0  0  0
   -0.5020   -0.9186   -1.0161 C   0  0  0  0  0  0  0  0  0  0  0  0
   -1.7852    0.9158    0.6205 C   0  0  0  0  0  0  0  0  0  0  0  0
   -1.9026   -0.8707   -0.9727 C   0  0  0  0  0  0  0  0  0  0  0  0
   -2.5769    0.0492   -0.1556 C   0  0  0  0  0  0  0  0  0  0  0  0
   -4.1114    0.1273   -0.0782 C   0  0  0  0  0  0  0  0  0  0  0  0
   -4.5731   -0.1591    1.3669 C   0  0  0  0  0  0  0  0  0  0  0  0
   -4.8352   -0.8818   -0.9982 C   0  0  0  0  0  0  0  0  0  0  0  0
   -4.5817    1.5388   -0.4914 C   0  0  0  0  0  0  0  0  0  0  0  0
    7.0036   -0.2284    2.4164 H   0  0  0  0  0  0  0  0  0  0  0  0
    7.8915   -0.1946    0.0860 H   0  0  0  0  0  0  0  0  0  0  0  0
    6.3099   -0.1235   -1.8289 H   0  0  0  0  0  0  0  0  0  0  0  0
    1.8810   -0.0091   -2.4365 H   0  0  0  0  0  0  0  0  0  0  0  0
    0.1785    1.5555    1.2067 H   0  0  0  0  0  0  0  0  0  0  0  0
   -0.0295   -1.6622   -1.6544 H   0  0  0  0  0  0  0  0  0  0  0  0
   -2.2477    1.6436    1.2841 H   0  0  0  0  0  0  0  0  0  0  0  0
   -2.4438   -1.5802   -1.5926 H   0  0  0  0  0  0  0  0  0  0  0  0
   -4.2295   -1.1447    1.7028 H   0  0  0  0  0  0  0  0  0  0  0  0
   -5.6667   -0.1433    1.4430 H   0  0  0  0  0  0  0  0  0  0  0  0
   -4.1919    0.5818    2.0783 H   0  0  0  0  0  0  0  0  0  0  0  0
   -4.5837   -1.9168   -0.7391 H   0  0  0  0  0  0  0  0  0  0  0  0
   -5.9242   -0.7844   -0.9120 H   0  0  0  0  0  0  0  0  0  0  0  0
   -4.5799   -0.7216   -2.0523 H   0  0  0  0  0  0  0  0  0  0  0  0
   -5.6756    1.6104   -0.4792 H   0  0  0  0  0  0  0  0  0  0  0  0
   -4.2031    2.3158    0.1817 H   0  0  0  0  0  0  0  0  0  0  0  0
   -4.2424    1.7869   -1.5041 H   0  0  0  0  0  0  0  0  0  0  0  0
  1  2  1  0
  2  3  2  0
  2  4  1  0
  3  5  1  0
  3  6  1  0
  4  7  2  0
  5  8  2  0
  5  9  1  0
  6 10  1  0
  6 11  2  0
  9 12  1  0
  9 13  2  0
 12 14  1  0
 12 15  2  0
 14 16  2  0
 15 17  1  0
 16 18  1  0
 18 19  1  0
 19 20  1  0
 19 21  1  0
 19 22  1  0
  7 11  1  0
 10 13  1  0
 17 18  2  0
  4 23  1  0
  7 24  1  0
 11 25  1  0
 13 26  1  0
 14 27  1  0
 15 28  1  0
 16 29  1  0
 17 30  1  0
 20 31  1  0
 20 32  1  0
 20 33  1  0
 21 34  1  0
 21 35  1  0
 21 36  1  0
 22 37  1  0
 22 38  1  0
 22 39  1  0
M  END
>  <Compound_ID>  (13) 
KIN5059

$$$$
KIN-0120865
     RDKit          3D

 37 39  0  0  0  0  0  0  0  0999 V2000
   -4.5773   -1.9190    0.6478 F   0  0  0  0  0  0  0  0  0  0  0  0
   -5.1514   -0.7293    0.4376 C   0  0  0  0  0  0  0  0  0  0  0  0
   -4.4056    0.4275    0.1829 C   0  0  0  0  0  0  0  0  0  0  0  0
   -6.5438   -0.6805    0.5388 C   0  0  0  0  0  0  0  0  0  0  0  0
   -3.0023    0.5019    0.0546 N   0  0  0  0  0  0  0  0  0  0  0  0
   -5.0983    1.6432    0.0593 C   0  0  0  0  0  0  0  0  0  0  0  0
   -7.2174    0.5295    0.3959 C   0  0  0  0  0  0  0  0  0  0  0  0
   -2.0792   -0.5210   -0.0563 C   0  0  0  0  0  0  0  0  0  0  0  0
   -6.4927    1.6938    0.1602 C   0  0  0  0  0  0  0  0  0  0  0  0
   -2.3078   -1.7212   -0.1333 O   0  0  0  0  0  0  0  0  0  0  0  0
   -0.7121   -0.0083   -0.1317 C   0  0  0  0  0  0  0  0  0  0  0  0
   -0.4291    1.3322   -0.1962 N   0  0  0  0  0  0  0  0  0  0  0  0
    0.4652   -0.7359   -0.2136 C   0  0  0  0  0  0  0  0  0  0  0  0
    0.8800    1.4726   -0.3213 N   0  0  0  0  0  0  0  0  0  0  0  0
    1.4667    0.2429   -0.2484 N   0  0  0  0  0  0  0  0  0  0  0  0
    0.6565   -2.0866   -0.2828 N   0  0  0  0  0  0  0  0  0  0  0  0
    2.8853    0.1278   -0.2071 C   0  0  0  0  0  0  0  0  0  0  0  0
    3.6727    1.2430   -0.5359 C   0  0  0  0  0  0  0  0  0  0  0  0
    3.5190   -1.0560    0.1870 C   0  0  0  0  0  0  0  0  0  0  0  0
    5.0680    1.1598   -0.5075 C   0  0  0  0  0  0  0  0  0  0  0  0
    4.9162   -1.1331    0.2160 C   0  0  0  0  0  0  0  0  0  0  0  0
    5.7006   -0.0338   -0.1480 C   0  0  0  0  0  0  0  0  0  0  0  0
    7.1972   -0.1114   -0.0814 C   0  0  0  0  0  0  0  0  0  0  0  0
   -7.0907   -1.5968    0.7408 H   0  0  0  0  0  0  0  0  0  0  0  0
   -2.6023    1.4325   -0.0212 H   0  0  0  0  0  0  0  0  0  0  0  0
   -4.5624    2.5710   -0.1294 H   0  0  0  0  0  0  0  0  0  0  0  0
   -8.3008    0.5642    0.4766 H   0  0  0  0  0  0  0  0  0  0  0  0
   -7.0105    2.6442    0.0536 H   0  0  0  0  0  0  0  0  0  0  0  0
   -0.1958   -2.6536   -0.3719 H   0  0  0  0  0  0  0  0  0  0  0  0
    1.3815   -2.4466   -0.9021 H   0  0  0  0  0  0  0  0  0  0  0  0
    3.2189    2.1887   -0.8279 H   0  0  0  0  0  0  0  0  0  0  0  0
    2.9619   -1.9227    0.5289 H   0  0  0  0  0  0  0  0  0  0  0  0
    5.6567    2.0372   -0.7676 H   0  0  0  0  0  0  0  0  0  0  0  0
    5.3887   -2.0586    0.5398 H   0  0  0  0  0  0  0  0  0  0  0  0
    7.6559    0.5504   -0.8236 H   0  0  0  0  0  0  0  0  0  0  0  0
    7.5452   -1.1277   -0.2941 H   0  0  0  0  0  0  0  0  0  0  0  0
    7.5432    0.1801    0.9150 H   0  0  0  0  0  0  0  0  0  0  0  0
  1  2  1  0
  2  3  1  0
  2  4  2  0
  3  5  1  0
  3  6  2  0
  4  7  1  0
  5  8  1  0
  6  9  1  0
  8 10  2  0
  8 11  1  0
 11 12  1  0
 11 13  2  0
 12 14  2  0
 13 15  1  0
 13 16  1  0
 15 17  1  0
 17 18  1  0
 17 19  2  0
 18 20  2  0
 19 21  1  0
 20 22  1  0
 22 23  1  0
  7  9  2  0
 14 15  1  0
 21 22  2  0
  4 24  1  0
  5 25  1  0
  6 26  1  0
  7 27  1  0
  9 28  1  0
 16 29  1  0
 16 30  1  0
 18 31  1  0
 19 32  1  0
 20 33  1  0
 21 34  1  0
 23 35  1  0
 23 36  1  0
 23 37  1  0
M  END
>  <Compound_ID>  (14) 
KIN-0120865

$$$$
